!PBEh-3c opt 
Generated by prepare_file.py
% pal nprocs 16 end
% maxcore 4000
%%scf maxiter 500
     end
% output
    printlevel mini
    print[ P_SCFInfo ] 1
    print[ P_SCFIterInfo ] 1
    print[ P_OrbEn ] 0
    print[ P_Cartesian ] 0
end
% elprop
    Dipole False
end
* xyz 0 1 
 C   -0.00000000   -0.00000000    0.00000000 
 C    1.17100000    0.97500000   -0.22000000 
 C    1.75200000    1.39600000    1.14300000 
 C    3.27900000    1.55400000    1.02300000 
 C    3.71600000    1.23800000   -0.42000000 
 H   -0.78500000    0.24400000   -0.65300000 
 H    0.32200000   -0.98100000   -0.19000000 
 H   -0.33500000    0.07300000    0.99300000 
 H    4.75800000    1.34400000   -0.50100000 
 H    0.82800000    1.82500000   -0.73100000 
 H    1.91700000    0.50300000   -0.78700000 
 H    1.53200000    0.66100000    1.86000000 
 H    1.32900000    2.31000000    1.43800000 
 H    3.75300000    0.89200000    1.68500000 
 H    3.54900000    2.54000000    1.26100000 
 H    3.24500000    1.90200000   -1.08300000 
 H    3.44600000    0.25200000   -0.66000000 
*
