!PBEh-3c opt 
Generated by prepare_file.py
% pal nprocs 16 end
% maxcore 4000
%%scf maxiter 500
     end
% output
    printlevel mini
    print[ P_SCFInfo ] 1
    print[ P_SCFIterInfo ] 1
    print[ P_OrbEn ] 0
    print[ P_Cartesian ] 0
end
% elprop
    Dipole False
end
* xyz 0 1 
 C   -0.00000000   -0.00000000    0.00000000 
 C    1.17100000    0.97500000   -0.22000000 
 C    1.75200000    1.39600000    1.14300000 
 C    3.27900000    1.55400000    1.02300000 
 C    3.74600000    2.72500000    1.90600000 
 H   -0.78500000    0.24400000   -0.65300000 
 H    0.32200000   -0.98100000   -0.19000000 
 H   -0.33500000    0.07300000    0.99300000 
 H    4.78800000    2.83200000    1.82300000 
 H    0.82800000    1.82500000   -0.73100000 
 H    1.91700000    0.50300000   -0.78700000 
 H    1.53200000    0.66100000    1.86000000 
 H    1.32900000    2.31000000    1.43800000 
 H    3.53400000    1.74500000    0.02300000 
 H    3.74800000    0.66900000    1.33900000 
 H    3.49500000    2.53100000    2.90800000 
 H    3.27700000    3.61000000    1.59200000 
*
