!PBEh-3c opt 
Generated by prepare_file.py
% pal nprocs 16 end
% maxcore 4000
%%scf maxiter 500
     end
% output
    printlevel mini
    print[ P_SCFInfo ] 1
    print[ P_SCFIterInfo ] 1
    print[ P_OrbEn ] 0
    print[ P_Cartesian ] 0
end
% elprop
    Dipole False
end
* xyz 0 1 
 C   -0.00000000   -0.00000000    0.00000000 
 C    1.17100000    0.97500000   -0.22000000 
 C    1.75200000    1.39600000    1.14300000 
 C    0.76500000    2.34300000    1.85000000 
 C    0.76700000    3.71000000    1.14200000 
 H   -0.78500000    0.24400000   -0.65300000 
 H    0.32200000   -0.98100000   -0.19000000 
 H   -0.33500000    0.07300000    0.99300000 
 H    0.09500000    4.35600000    1.62600000 
 H    0.82800000    1.82500000   -0.73100000 
 H    1.91700000    0.50300000   -0.78700000 
 H    2.66700000    1.89100000    0.99600000 
 H    1.90600000    0.54400000    1.73700000 
 H    1.05400000    2.46600000    2.85200000 
 H   -0.20100000    1.93200000    1.81300000 
 H    0.47500000    3.58800000    0.14100000 
 H    1.73300000    4.12100000    1.17700000 
*
