!PBEh-3c opt 
Generated by prepare_file.py
% pal nprocs 16 end
% maxcore 4000
%%scf maxiter 500
     end
% output
    printlevel mini
    print[ P_SCFInfo ] 1
    print[ P_SCFIterInfo ] 1
    print[ P_OrbEn ] 0
    print[ P_Cartesian ] 0
end
% elprop
    Dipole False
end
* xyz 0 1 
 C   -0.00000000   -0.00000000    0.00000000 
 C    1.17100000    0.97500000   -0.22000000 
 C    1.75200000    1.39600000    1.14300000 
 C    2.19400000    2.87000000    1.07900000 
 C    1.90700000    3.43100000   -0.32600000 
 H   -0.78500000    0.24400000   -0.65300000 
 H    0.32200000   -0.98100000   -0.19000000 
 H   -0.33500000    0.07300000    0.99300000 
 H    2.21000000    4.43600000   -0.37000000 
 H    0.82800000    1.82500000   -0.73100000 
 H    1.91700000    0.50300000   -0.78700000 
 H    2.58100000    0.79300000    1.37200000 
 H    1.02000000    1.28300000    1.88700000 
 H    3.22100000    2.93700000    1.28000000 
 H    1.66000000    3.42600000    1.79200000 
 H    0.87800000    3.36800000   -0.52700000 
 H    2.43900000    2.87500000   -1.04100000 
*
