!PBEh-3c opt 
Generated by prepare_file.py
% pal nprocs 16 end
% maxcore 4000
%%scf maxiter 500
     end
% output
    printlevel mini
    print[ P_SCFInfo ] 1
    print[ P_SCFIterInfo ] 1
    print[ P_OrbEn ] 0
    print[ P_Cartesian ] 0
end
% elprop
    Dipole False
end
* xyz 0 1 
 C   -0.00000000   -0.00000000    0.00000000 
 C    1.17100000    0.97500000   -0.22000000 
 C    1.75200000    1.39600000    1.14300000 
 C    2.19400000    2.87000000    1.07900000 
 C    3.46800000    3.06200000    1.92100000 
 H   -0.78500000    0.24400000   -0.65300000 
 H    0.32200000   -0.98100000   -0.19000000 
 H   -0.33500000    0.07300000    0.99300000 
 H    3.76900000    4.06700000    1.87800000 
 H    0.82800000    1.82500000   -0.73100000 
 H    1.91700000    0.50300000   -0.78700000 
 H    2.58100000    0.79300000    1.37200000 
 H    1.02000000    1.28300000    1.88700000 
 H    1.42900000    3.48200000    1.45600000 
 H    2.39100000    3.13200000    0.08100000 
 H    4.23500000    2.45200000    1.54100000 
 H    3.27200000    2.79800000    2.91800000 
*
