%mem=1GB
%nprocshared=4
%chk=pentane_21.chk
# opt=(maxcycles=160) M062X/6-31G(d) emp=GD3 

Generated by prepare_file.py

0 1
 C                 -0.00000000   -0.00000000    0.00000000
 C                  1.17100000    0.97500000   -0.22000000
 C                  1.75200000    1.39600000    1.14300000
 C                  2.52100000    0.21300000    1.76000000
 C                  1.52300000   -0.85900000    2.23200000
 H                 -0.78500000    0.24400000   -0.65300000
 H                  0.32200000   -0.98100000   -0.19000000
 H                 -0.33500000    0.07300000    0.99300000
 H                  2.04800000   -1.66500000    2.65400000
 H                  0.82800000    1.82500000   -0.73100000
 H                  1.91700000    0.50300000   -0.78700000
 H                  0.97000000    1.67700000    1.78600000
 H                  2.40500000    2.20700000    1.01100000
 H                  3.08600000    0.55000000    2.57700000
 H                  3.16300000   -0.20100000    1.03900000
 H                  0.96000000   -1.20000000    1.41300000
 H                  0.87900000   -0.44600000    2.95200000

