%mem=1GB
%nprocshared=4
%chk=pentane_9.chk
# opt=(maxcycles=160) M062X/6-31G(d) emp=GD3 

Generated by prepare_file.py

0 1
 C                 -0.00000000   -0.00000000    0.00000000
 C                  1.17100000    0.97500000   -0.22000000
 C                  1.75200000    1.39600000    1.14300000
 C                  0.76500000    2.34300000    1.85000000
 C                 -0.45800000    1.54200000    2.33400000
 H                 -0.78500000    0.24400000   -0.65300000
 H                  0.32200000   -0.98100000   -0.19000000
 H                 -0.33500000    0.07300000    0.99300000
 H                 -1.13100000    2.18900000    2.81600000
 H                  0.82800000    1.82500000   -0.73100000
 H                  1.91700000    0.50300000   -0.78700000
 H                  2.66700000    1.89100000    0.99600000
 H                  1.90600000    0.54400000    1.73700000
 H                  0.45300000    3.08900000    1.18100000
 H                  1.23900000    2.78900000    2.67500000
 H                 -0.14700000    0.79900000    3.00800000
 H                 -0.93200000    1.09400000    1.51100000

